*KEYWORD
$
$-------------------------------------------------------------------------------
$
$   This file holds the LS-DYNA model information on the geometrical surface
$   of the OpenHBM 50th Percentile Female Occupant Model
$   Copyright (C) <2014->  <Jonas Östh, Karin Brolin, Manuel Mendoza-Vazquez>
$
$   The later is distributed under the GNU General Public License as
$   published by the Free Software Foundation, either version 3 of the
$   License, or (at your option) any later version.
$
$   For more info see https://www.chalmers.se/en/projects/Pages/OpenHBM.aspx
$
$-------------------------------------------------------------------------------
$
*ELEMENT_SHELL
$#   eid     pid      n1      n2      n3      n4      n5      n6      n7      n8
 1107222      10 1012107 1012582 1012671 1012156
 1107223      10 1012106 1012653 1012582 1012107
 1107224      10 1012105 1012568 1012653 1012106
 1107225      10 1012104 1012652 1012568 1012105
 1107226      10 1012103 1012651 1012652 1012104
 1107227      10 1012102 1012649 1012651 1012103
 1107228      10 1012101 1012639 1012649 1012102
 1107229      10 1012100 1012638 1012639 1012101
 1107230      10 1012099 1012595 1012638 1012100
 1107231      10 1012098 1012593 1012595 1012099
 1107232      10 1012157 1012656 1012593 1012098
 1107233      10 1012656 1012580 1012591 1012593
 1107234      10 1012658 1012589 1012580 1012656
 1107235      10 1012664 1012587 1012589 1012658
 1107236      10 1012667 1012585 1012587 1012664
 1107237      10 1012668 1012584 1012585 1012667
 1107238      10 1012671 1012582 1012584 1012668
 1107239      10 1012591 1012638 1012595 1012593
 1107240      10 1012653 1012568 1012584 1012582
 1107241      10 1012587 1012577 1012580 1012589
$ ... 10288 like lines cut
$
$-------------------------------------------------------------------------------
$
*MAT_NULL_TITLE
$#                                                                         title
Skin
$#     mid        ro        pc        mu     terod     cerod        ym        pr
         1  1.00E-06                   0                         1.000     0.300
$
$-------------------------------------------------------------------------------
$
*NODE
$#   nid               x               y               z      tc      rc
 1007703      -304.41380         0.00000       664.25020
 1007704      -300.76020         0.00000       670.73940
 1007705      -296.34700         0.00000       677.30070
 1007706      -291.74800         0.00000       683.26210
 1007707      -286.10870         0.00000       689.44340
 1007708      -279.73460         0.00000       695.05760
 1007709      -272.39430         0.00000       700.02560
 1007710      -264.72490         0.00000       703.85330
 1007711      -256.38410         0.00000       706.73820
 1007712      -248.01070         0.00000       708.53850
 1007713      -239.95860         0.00000       709.49570
 1007714      -231.58190         0.00000       709.91800
 1007715      -223.27330         0.00000       709.70450
 1007716      -215.05410         0.00000       708.97140
 1007717      -206.97640         0.00000       707.78420
 1007718      -198.89690         0.00000       706.12320
 1007719      -191.03090         0.00000       703.97660
 1007720      -185.84590         0.00000       702.25450
 1007721      -179.43800         0.00000       699.75560
 1007722      -173.03590         0.00000       696.86130
$ ... 10092 like lines cut
$
$-------------------------------------------------------------------------------
$
*PART
$#                                                             heading
Head
$#     pid     secid       mid     eosid      hgid      grav    adpopt      tmid
        10         1         1         0         0         0         0         0
$
$-------------------------------------------------------------------------------
$
*PART
$#                                                             heading
Neck
$#     pid     secid       mid     eosid      hgid      grav    adpopt      tmid
        20         1         1         0         0         0         0         0
$
$-------------------------------------------------------------------------------
$
*PART
$#                                                             heading
Arm_L
$#     pid     secid       mid     eosid      hgid      grav    adpopt      tmid
        30         1         1         0         0         0         0         0
$
$-------------------------------------------------------------------------------
$
*PART
$#                                                             heading
LowerArm_L
$#     pid     secid       mid     eosid      hgid      grav    adpopt      tmid
        31         1         1         0         0         0         0         0
$
$-------------------------------------------------------------------------------
$
*PART
$#                                                             heading
Hand_L
$#     pid     secid       mid     eosid      hgid      grav    adpopt      tmid
        32         1         1         0         0         0         0         0
$
$-------------------------------------------------------------------------------
$
*PART
$#                                                             heading
Thorax
$#     pid     secid       mid     eosid      hgid      grav    adpopt      tmid
        40         1         1         0         0         0         0         0
$
$-------------------------------------------------------------------------------
$
*PART
$#                                                             heading
Shoulder_L
$#     pid     secid       mid     eosid      hgid      grav    adpopt      tmid
        41         1         1         0         0         0         0         0
$
$-------------------------------------------------------------------------------
$
*PART
$#                                                             heading
Shoulder_R
$#     pid     secid       mid     eosid      hgid      grav    adpopt      tmid
        42         1         1         0         0         0         0         0
$
$-------------------------------------------------------------------------------
$
*PART
$#                                                             heading
Arm_R
$#     pid     secid       mid     eosid      hgid      grav    adpopt      tmid
        50         1         1         0         0         0         0         0
$
$-------------------------------------------------------------------------------
$
*PART
$#                                                             heading
LowerArm_R
$#     pid     secid       mid     eosid      hgid      grav    adpopt      tmid
        51         1         1         0         0         0         0         0
$
$-------------------------------------------------------------------------------
$
*PART
$#                                                             heading
Hand_R
$#     pid     secid       mid     eosid      hgid      grav    adpopt      tmid
        52         1         1         0         0         0         0         0
$
$-------------------------------------------------------------------------------
$
*PART
$#                                                             heading
Abdomen
$#     pid     secid       mid     eosid      hgid      grav    adpopt      tmid
        60         1         1         0         0         0         0         0
$
$-------------------------------------------------------------------------------
$
*PART
$#                                                             heading
Leg_L
$#     pid     secid       mid     eosid      hgid      grav    adpopt      tmid
        70         1         1         0         0         0         0         0
$
$-------------------------------------------------------------------------------
$
*PART
$#                                                             heading
LowerLeg_L
$#     pid     secid       mid     eosid      hgid      grav    adpopt      tmid
        71         1         1         0         0         0         0         0
$
$-------------------------------------------------------------------------------
$
*PART
$#                                                             heading
Foot_L
$#     pid     secid       mid     eosid      hgid      grav    adpopt      tmid
        72         1         1         0         0         0         0         0
$
$-------------------------------------------------------------------------------
$
*PART
$#                                                             heading
Pelvis L
$#     pid     secid       mid     eosid      hgid      grav    adpopt      tmid
        81         1         1         0         0         0         0         0
$
$-------------------------------------------------------------------------------
$
*PART
$#                                                             heading
Pelvis_R
$#     pid     secid       mid     eosid      hgid      grav    adpopt      tmid
        82         1         1         0         0         0         0         0
$
$-------------------------------------------------------------------------------
$
*PART
$#                                                             heading
Leg_R
$#     pid     secid       mid     eosid      hgid      grav    adpopt      tmid
        90         1         1         0         0         0         0         0
$
$-------------------------------------------------------------------------------
$
*PART
$#                                                             heading
LowerLeg_R
$#     pid     secid       mid     eosid      hgid      grav    adpopt      tmid
        91         1         1         0         0         0         0         0
$
$-------------------------------------------------------------------------------
$
*PART
$#                                                             heading
Foot_R
$#     pid     secid       mid     eosid      hgid      grav    adpopt      tmid
        92         1         1         0         0         0         0         0
$
$-------------------------------------------------------------------------------
$
*SECTION_SHELL_TITLE
$#                                                                         title
Skin
$#   secid    elform      shrf       nip     propt   qr/irid     icomp     setyp
         1         1     0.833         2
$#      t1        t2        t3        t4      nloc     marea      idof    edgset
         1
$
$-------------------------------------------------------------------------------
$
*TITLE
$#                                                                         title
ViVA OpenHBM F50
$
$-------------------------------------------------------------------------------
$
*END
